*HEADING
Three-train full-set longitudinal buff/draft screen
*NODE
1,-74250.000000,-1150.000000,720.000000
2,-72150.000000,-1150.000000,720.000000
3,-66000.000000,-1150.000000,720.000000
4,-59850.000000,-1150.000000,720.000000
5,-57750.000000,-1150.000000,720.000000
6,-55650.000000,-1150.000000,720.000000
7,-49500.000000,-1150.000000,720.000000
8,-43350.000000,-1150.000000,720.000000
9,-41250.000000,-1150.000000,720.000000
10,-39150.000000,-1150.000000,720.000000
11,-33000.000000,-1150.000000,720.000000
12,-26850.000000,-1150.000000,720.000000
13,-24750.000000,-1150.000000,720.000000
14,-22650.000000,-1150.000000,720.000000
15,-16500.000000,-1150.000000,720.000000
16,-10350.000000,-1150.000000,720.000000
17,-8250.000000,-1150.000000,720.000000
18,-6150.000000,-1150.000000,720.000000
19,0.000000,-1150.000000,720.000000
20,6150.000000,-1150.000000,720.000000
** ... 107 like lines cut
*NSET,NSET=ALLN
1,2,3,4,5,6,7,8,9,10,11,12
13,14,15,16,17,18,19,20,21,22,23,24
25,26,27,28,29,30,31,32,33,34,35,36
37,38,39,40,41,42,43,44,45,46,47,48
49,50,51,52,53,54,55,56,57,58,59,60
61,62,63,64,65,66,67,68,69,70,71,72
73,74,75,76,77,78,79,80,81,82,83,84
85,86,87,88,89,90,91,92,93,94,95,96
97,98,99,100,101,102,103,104,105,106,107,108
109,110,111,112,113,114,115,116,117,118,119,120
121,122,123,124,125,126,127
*ELSET,ELSET=ALLE
1,2,3,4,5,6,7,8,9,10,11,12
13,14,15,16,17,18,19,20,21,22,23,24
25,26,27,28,29,30,31,32,33,34,35,36
37,38,39,40,41,42,43,44,45,46,47,48
49,50,51,52,53,54,55,56,57,58,59,60
61,62,63,64,65,66,67,68,69,70,71,72
73,74,75,76,77,78,79,80,81,82,83,84
85,86,87,88,89,90,91,92,93,94,95,96
97,98,99,100,101,102,103,104,105,106,107,108
109,110,111,112,113,114,115,116,117,118,119,120
121,122,123,124,125,126,127,128,129,130,131,132
133,134,135,136,137,138,139,140,141,142,143,144
145,146,147,148,149,150,151,152,153,154,155
*ELEMENT,TYPE=B31,ELSET=LONGITUDINAL_SILL
1,1,2
2,2,3
3,3,4
4,4,5
5,5,6
6,6,7
7,7,8
8,8,9
9,9,10
10,10,11
11,11,12
12,12,13
13,13,14
14,14,15
15,15,16
16,16,17
17,17,18
18,18,19
19,19,20
20,20,21
** ... 52 like lines cut
*ELEMENT,TYPE=B31,ELSET=CENTRE_SPINE
73,75,76
74,76,77
75,77,78
76,78,79
77,79,80
78,80,81
79,81,82
80,82,83
81,83,84
82,84,85
83,85,86
84,86,87
85,87,88
86,88,89
87,89,90
88,90,91
89,91,92
90,92,93
91,93,94
92,94,95
** ... 16 like lines cut
*ELEMENT,TYPE=B31,ELSET=CROSS_TIE
109,1,38
110,2,39
111,3,40
112,4,41
113,5,42
114,6,43
115,7,44
116,8,45
117,9,46
118,10,47
119,11,48
120,12,49
121,13,50
122,14,51
123,15,52
124,16,53
125,17,54
126,18,55
127,19,56
128,20,57
** ... 17 like lines cut
*ELEMENT,TYPE=B31,ELSET=TRAIN_TO_TRAIN_LINK
147,114,115
149,118,119
150,13,50
152,122,123
154,126,127
155,25,62
*ELEMENT,TYPE=B31,ELSET=UPPER_GANGWAY_LINK
146,112,113
148,116,117
151,120,121
153,124,125
*MATERIAL,NAME=S355
*ELASTIC
210000.0,0.300
*BEAM SECTION,ELSET=LONGITUDINAL_SILL,MATERIAL=S355,SECTION=RECT
260.000000,430.000000
0.000000,0.000000,-1.000000
*BEAM SECTION,ELSET=CENTRE_SPINE,MATERIAL=S355,SECTION=RECT
220.000000,360.000000
0.000000,0.000000,-1.000000
*BEAM SECTION,ELSET=CROSS_TIE,MATERIAL=S355,SECTION=RECT
150.000000,240.000000
0.000000,0.000000,-1.000000
*BEAM SECTION,ELSET=TRAIN_TO_TRAIN_LINK,MATERIAL=S355,SECTION=RECT
240.000000,300.000000
0.000000,0.000000,-1.000000
*BEAM SECTION,ELSET=UPPER_GANGWAY_LINK,MATERIAL=S355,SECTION=RECT
120.000000,160.000000
0.000000,0.000000,-1.000000
*BOUNDARY
1,1,6,0.000000
75,1,3,0.000000
38,1,3,0.000000
*STEP
*STATIC
*CLOAD
37,1,-60000.000000
111,1,-60000.000000
74,1,-60000.000000
*NODE PRINT,NSET=ALLN
U
*EL PRINT,ELSET=ALLE
S
*END STEP
