*HEADING
Low-floor chassis supported at bogie connectors
*NODE
1,-8500.000000,-1250.000000,350.000000
2,-7600.000000,-1250.000000,350.000000
3,-6400.000000,-1250.000000,350.000000
4,-4200.000000,-1250.000000,350.000000
5,-2000.000000,-1250.000000,350.000000
6,0.000000,-1250.000000,350.000000
7,2000.000000,-1250.000000,350.000000
8,4200.000000,-1250.000000,350.000000
9,6400.000000,-1250.000000,350.000000
10,7600.000000,-1250.000000,350.000000
11,8500.000000,-1250.000000,350.000000
12,-8500.000000,1250.000000,350.000000
13,-7600.000000,1250.000000,350.000000
14,-6400.000000,1250.000000,350.000000
15,-4200.000000,1250.000000,350.000000
16,-2000.000000,1250.000000,350.000000
17,0.000000,1250.000000,350.000000
18,2000.000000,1250.000000,350.000000
19,4200.000000,1250.000000,350.000000
20,6400.000000,1250.000000,350.000000
** ... 135 like lines cut
*NSET,NSET=ALLN
1,2,3,4,5,6,7,8,9,10,11,12
13,14,15,16,17,18,19,20,21,22,23,24
25,26,27,28,29,30,31,32,33,34,35,36
37,38,39,40,41,42,43,44,45,46,47,48
49,50,51,52,53,54,55,56,57,58,59,60
61,62,63,64,65,66,67,68,69,70,71,72
73,74,75,76,77,78,79,80,81,82,83,84
85,86,87,88,89,90,91,92,93,94,95,96
97,98,99,100,101,102,103,104,105,106,107,108
109,110,111,112,113,114,115,116,117,118,119,120
121,122,123,124,125,126,127,128,129,130,131,132
133,134,135,136,137,138,139,140,141,142,143,144
145,146,147,148,149,150,151,152,153,154,155
*ELSET,ELSET=ALLE
1,2,3,4,5,6,7,8,9,10,11,12
13,14,15,16,17,18,19,20,21,22,23,24
25,26,27,28,29,30,31,32,33,34,35,36
37,38,39,40,41,42,43,44,45,46,47,48
49,50,51,52,53,54,55,56,57,58,59,60
61,62,63,64,65,66,67,68,69,70,71,72
73,74,75,76,77,78,79,80,81,82,83,84
85,86,87,88,89,90,91,92,93,94,95,96
97,98,99,100,101,102,103,104,105,106,107,108
109,110,111,112,113,114,115,116,117,118,119,120
121,122,123,124,125,126,127,128,129,130,131,132
133,134,135,136,137,138,139,140,141,142,143,144
145,146,147,148,149,150,151,152,153,154,155,156
157,158,159
*ELEMENT,TYPE=B31,ELSET=SIDE_TORSION_BOX
1,1,2
2,2,3
3,3,4
4,4,5
5,5,6
6,6,7
7,7,8
8,8,9
9,9,10
10,10,11
11,12,13
12,13,14
13,14,15
14,15,16
15,16,17
16,17,18
17,18,19
18,19,20
19,20,21
20,21,22
*ELEMENT,TYPE=B31,ELSET=STRINGER
21,23,24
22,24,25
23,25,26
24,26,27
25,27,28
26,28,29
27,29,30
28,30,31
29,31,32
30,33,34
31,34,35
32,35,36
33,36,37
34,37,38
35,38,39
36,39,40
37,40,41
38,41,42
*ELEMENT,TYPE=B31,ELSET=KEEL_BOX
39,43,44
40,44,45
41,45,46
42,46,47
43,47,48
44,48,49
45,49,50
46,50,51
47,51,52
48,53,54
49,54,55
50,55,56
51,56,57
52,57,58
53,58,59
54,59,60
55,60,61
56,61,62
*ELEMENT,TYPE=B31,ELSET=UPPER_CHORD
57,63,64
58,64,65
59,65,66
60,66,67
61,67,68
62,68,69
63,69,70
64,70,71
65,71,72
66,73,74
67,74,75
68,75,76
69,76,77
70,77,78
71,78,79
72,79,80
73,80,81
74,81,82
*ELEMENT,TYPE=B31,ELSET=CROSS_BEARER
75,1,83
76,83,84
77,84,85
78,85,86
79,86,87
80,87,12
81,2,23
82,23,88
83,88,89
84,89,90
85,90,33
86,33,13
87,3,24
88,24,91
89,91,92
90,92,93
91,93,34
92,34,14
93,4,25
94,25,94
** ... 46 like lines cut
*ELEMENT,TYPE=B31,ELSET=TORSION_TIE
99,97,98
106,102,103
113,107,108
120,112,113
127,117,118
*ELEMENT,TYPE=B31,ELSET=BOLSTER
146,128,129
147,130,131
148,132,133
149,134,135
150,136,137
151,138,139
152,140,141
153,142,143
154,144,145
155,146,147
156,148,149
157,150,151
158,152,153
159,154,155
*MATERIAL,NAME=S355
*ELASTIC
210000.0,0.300
*BEAM SECTION,ELSET=SIDE_TORSION_BOX,MATERIAL=S355,SECTION=RECT
240.000000,430.000000
0.000000,0.000000,-1.000000
*BEAM SECTION,ELSET=STRINGER,MATERIAL=S355,SECTION=RECT
165.000000,260.000000
0.000000,0.000000,-1.000000
*BEAM SECTION,ELSET=KEEL_BOX,MATERIAL=S355,SECTION=RECT
150.000000,250.000000
0.000000,0.000000,-1.000000
*BEAM SECTION,ELSET=UPPER_CHORD,MATERIAL=S355,SECTION=RECT
90.000000,145.000000
0.000000,0.000000,-1.000000
*BEAM SECTION,ELSET=CROSS_BEARER,MATERIAL=S355,SECTION=RECT
125.000000,220.000000
0.000000,0.000000,-1.000000
*BEAM SECTION,ELSET=TORSION_TIE,MATERIAL=S355,SECTION=RECT
165.000000,180.000000
0.000000,0.000000,-1.000000
*BEAM SECTION,ELSET=BOLSTER,MATERIAL=S355,SECTION=RECT
260.000000,280.000000
0.000000,0.000000,-1.000000
*BOUNDARY
24,1,6,0.000000
34,2,3,0.000000
30,3,3,0.000000
40,3,3,0.000000
*STEP
*STATIC
*CLOAD
23,3,-13333.333333
89,3,-13333.333333
33,3,-13333.333333
24,3,-13333.333333
92,3,-13333.333333
34,3,-13333.333333
25,3,-13333.333333
95,3,-13333.333333
35,3,-13333.333333
26,3,-13333.333333
100,3,-13333.333333
36,3,-13333.333333
27,3,-13333.333333
105,3,-13333.333333
37,3,-13333.333333
28,3,-13333.333333
110,3,-13333.333333
38,3,-13333.333333
29,3,-13333.333333
115,3,-13333.333333
** ... 7 like lines cut
*NODE PRINT,NSET=ALLN
U
*EL PRINT,ELSET=ALLE
S
*END STEP
