*HEADING
OSR controlled member screening; mm N MPa
*NODE
1,0,0,0
2,41.40625,0,0
3,82.8125,0,0
4,124.21875,0,0
5,165.625,0,0
6,207.03125,0,0
7,248.4375,0,0
8,289.84375,0,0
9,331.25,0,0
10,372.65625,0,0
11,414.0625,0,0
12,455.46875,0,0
13,496.875,0,0
14,538.28125,0,0
15,579.6875,0,0
16,621.09375,0,0
17,662.5,0,0
18,703.90625,0,0
19,745.3125,0,0
20,786.71875,0,0
** ... 45 like lines cut
*ELEMENT,TYPE=B32,ELSET=MEMBER
1,1,2,3
2,3,4,5
3,5,6,7
4,7,8,9
5,9,10,11
6,11,12,13
7,13,14,15
8,15,16,17
9,17,18,19
10,19,20,21
11,21,22,23
12,23,24,25
13,25,26,27
14,27,28,29
15,29,30,31
16,31,32,33
17,33,34,35
18,35,36,37
19,37,38,39
20,39,40,41
** ... 12 like lines cut
*NSET,NSET=MID
33
*MATERIAL,NAME=STEEL
*ELASTIC
210000,0.3
*BEAM SECTION,ELSET=MEMBER,MATERIAL=STEEL,SECTION=RECT
180,250
0,1,0
*BOUNDARY
1,1,4,0
65,2,3,0
*STEP
*STATIC
*CLOAD
33,3,-10000
*NODE PRINT,NSET=MID
U
*EL PRINT,ELSET=MEMBER
S
*END STEP
