*HEADING
Full car body lateral sway screen
*NODE
1,-8500.000000,-1350.000000,350.000000
2,-6400.000000,-1350.000000,350.000000
3,-4200.000000,-1350.000000,350.000000
4,-2100.000000,-1350.000000,350.000000
5,0.000000,-1350.000000,350.000000
6,2100.000000,-1350.000000,350.000000
7,4200.000000,-1350.000000,350.000000
8,6400.000000,-1350.000000,350.000000
9,8500.000000,-1350.000000,350.000000
10,-8500.000000,-1350.000000,1500.000000
11,-6400.000000,-1350.000000,1500.000000
12,-4200.000000,-1350.000000,1500.000000
13,-2100.000000,-1350.000000,1500.000000
14,0.000000,-1350.000000,1500.000000
15,2100.000000,-1350.000000,1500.000000
16,4200.000000,-1350.000000,1500.000000
17,6400.000000,-1350.000000,1500.000000
18,8500.000000,-1350.000000,1500.000000
19,-8500.000000,-1350.000000,2800.000000
20,-6400.000000,-1350.000000,2800.000000
** ... 52 like lines cut
*NSET,NSET=ALLN
1,2,3,4,5,6,7,8,9,10,11,12
13,14,15,16,17,18,19,20,21,22,23,24
25,26,27,28,29,30,31,32,33,34,35,36
37,38,39,40,41,42,43,44,45,46,47,48
49,50,51,52,53,54,55,56,57,58,59,60
61,62,63,64,65,66,67,68,69,70,71,72
*ELSET,ELSET=ALLE
1,2,3,4,5,6,7,8,9,10,11,12
13,14,15,16,17,18,19,20,21,22,23,24
25,26,27,28,29,30,31,32,33,34,35,36
37,38,39,40,41,42,43,44,45,46,47,48
49,50,51,52,53,54,55,56,57,58,59,60
61,62,63,64,65,66,67,68,69,70,71,72
73,74,75,76,77,78,79,80,81,82,83,84
85,86,87,88,89,90,91,92,93,94,95,96
97,98,99,100,101,102,103,104,105,106,107,108
109,110,111,112,113,114,115,116,117,118,119,120
121,122,123,124,125,126,127,128,129,130,131,132
133,134,135,136
*ELEMENT,TYPE=B31,ELSET=SIDE_SILL
1,1,2
2,2,3
3,3,4
4,4,5
5,5,6
6,6,7
7,7,8
8,8,9
60,37,38
61,38,39
62,39,40
63,40,41
64,41,42
65,42,43
66,43,44
67,44,45
*ELEMENT,TYPE=B31,ELSET=WAIST_RAIL
9,10,11
10,11,12
11,12,13
12,13,14
13,14,15
14,15,16
15,16,17
16,17,18
68,46,47
69,47,48
70,48,49
71,49,50
72,50,51
73,51,52
74,52,53
75,53,54
*ELEMENT,TYPE=B31,ELSET=CANT_RAIL
17,19,20
18,20,21
19,21,22
20,22,23
21,23,24
22,24,25
23,25,26
24,26,27
76,55,56
77,56,57
78,57,58
79,58,59
80,59,60
81,60,61
82,61,62
83,62,63
*ELEMENT,TYPE=B31,ELSET=ROOF_RAIL
25,28,29
26,29,30
27,30,31
28,31,32
29,32,33
30,33,34
31,34,35
32,35,36
84,64,65
85,65,66
86,66,67
87,67,68
88,68,69
89,69,70
90,70,71
91,71,72
*ELEMENT,TYPE=B31,ELSET=POST
33,1,10
34,10,19
35,19,28
36,2,11
37,11,20
38,20,29
39,3,12
40,12,21
41,21,30
42,4,13
43,13,22
44,22,31
45,5,14
46,14,23
47,23,32
48,6,15
49,15,24
50,24,33
51,7,16
52,16,25
** ... 34 like lines cut
*ELEMENT,TYPE=B31,ELSET=CROSS_TIE
119,1,37
120,28,64
121,2,38
122,29,65
123,3,39
124,30,66
125,4,40
126,31,67
127,5,41
128,32,68
129,6,42
130,33,69
131,7,43
132,34,70
133,8,44
134,35,71
135,9,45
136,36,72
*MATERIAL,NAME=S355
*ELASTIC
210000.0,0.300
*BEAM SECTION,ELSET=SIDE_SILL,MATERIAL=S355,SECTION=RECT
170.000000,300.000000
0.000000,0.000000,-1.000000
*BEAM SECTION,ELSET=WAIST_RAIL,MATERIAL=S355,SECTION=RECT
120.000000,105.000000
0.000000,0.000000,-1.000000
*BEAM SECTION,ELSET=CANT_RAIL,MATERIAL=S355,SECTION=RECT
135.000000,170.000000
0.000000,0.000000,-1.000000
*BEAM SECTION,ELSET=ROOF_RAIL,MATERIAL=S355,SECTION=RECT
115.000000,115.000000
0.000000,0.000000,-1.000000
*BEAM SECTION,ELSET=POST,MATERIAL=S355,SECTION=RECT
120.000000,120.000000
1.000000,0.000000,0.000000
*BEAM SECTION,ELSET=CROSS_TIE,MATERIAL=S355,SECTION=RECT
95.000000,135.000000
0.000000,0.000000,-1.000000
*BOUNDARY
2,1,6,0.000000
38,2,3,0.000000
8,3,3,0.000000
44,3,3,0.000000
*STEP
*STATIC
*CLOAD
11,2,3452.380952
12,2,3452.380952
13,2,3452.380952
14,2,3452.380952
15,2,3452.380952
16,2,3452.380952
17,2,3452.380952
20,2,3452.380952
21,2,3452.380952
22,2,3452.380952
23,2,3452.380952
24,2,3452.380952
25,2,3452.380952
26,2,3452.380952
29,2,3452.380952
30,2,3452.380952
31,2,3452.380952
32,2,3452.380952
33,2,3452.380952
34,2,3452.380952
** ... 22 like lines cut
*NODE PRINT,NSET=ALLN
U
*EL PRINT,ELSET=ALLE
S
*END STEP
