*HEADING
Train-to-train open joint vertical load screen
*NODE
1,-720.000000,-1080.000000,720.000000
2,-720.000000,-1080.000000,760.000000
3,-720.000000,-1080.000000,1500.000000
4,-720.000000,-1080.000000,2850.000000
5,-720.000000,1080.000000,720.000000
6,-720.000000,1080.000000,760.000000
7,-720.000000,1080.000000,1500.000000
8,-720.000000,1080.000000,2850.000000
9,-720.000000,-760.000000,720.000000
10,-720.000000,0.000000,720.000000
11,-720.000000,760.000000,720.000000
12,-720.000000,-760.000000,760.000000
13,-720.000000,0.000000,760.000000
14,-720.000000,760.000000,760.000000
15,-720.000000,-760.000000,1500.000000
16,-720.000000,0.000000,1500.000000
17,-720.000000,760.000000,1500.000000
18,-720.000000,-760.000000,2850.000000
19,-720.000000,0.000000,2850.000000
20,-720.000000,760.000000,2850.000000
** ... 28 like lines cut
*NSET,NSET=ALLN
1,2,3,4,5,6,7,8,9,10,11,12
13,14,15,16,17,18,19,20,21,22,23,24
25,26,27,28,29,30,31,32,33,34,35,36
37,38,39,40,41,42,43,44,45,46,47,48
*ELSET,ELSET=ALLE
1,2,3,4,5,6,7,8,9,10,11,12
13,14,15,16,17,18,19,20,21,22,23,24
25,26,27,28,29,30,31,32,33,34,35,36
37,38,39,40,41,42,43,44,45,46,47,48
49,50,51
*ELEMENT,TYPE=B31,ELSET=END_RING
1,1,2
2,2,3
3,3,4
4,5,6
5,6,7
6,7,8
23,21,22
24,22,23
25,23,24
26,25,26
27,26,27
28,27,28
*ELEMENT,TYPE=B31,ELSET=LOWER_DRAWBAR
48,41,42
50,45,46
*ELEMENT,TYPE=B31,ELSET=THRESHOLD_BRIDGE
45,12,32
46,13,33
47,14,34
*ELEMENT,TYPE=B31,ELSET=UPPER_LINK
49,43,44
51,47,48
*ELEMENT,TYPE=B31,ELSET=PORTAL_TIE
7,1,9
8,9,10
9,10,11
10,11,5
11,2,12
12,12,13
13,13,14
14,14,6
15,3,15
16,15,16
17,16,17
18,17,7
19,4,18
20,18,19
21,19,20
22,20,8
29,21,29
30,29,30
31,30,31
32,31,25
** ... 12 like lines cut
*MATERIAL,NAME=S355
*ELASTIC
210000.0,0.300
*BEAM SECTION,ELSET=END_RING,MATERIAL=S355,SECTION=RECT
240.000000,360.000000
1.000000,1.000000,1.000000
*BEAM SECTION,ELSET=LOWER_DRAWBAR,MATERIAL=S355,SECTION=RECT
320.000000,420.000000
1.000000,1.000000,1.000000
*BEAM SECTION,ELSET=THRESHOLD_BRIDGE,MATERIAL=S355,SECTION=RECT
240.000000,240.000000
1.000000,1.000000,1.000000
*BEAM SECTION,ELSET=UPPER_LINK,MATERIAL=S355,SECTION=RECT
160.000000,220.000000
1.000000,1.000000,1.000000
*BEAM SECTION,ELSET=PORTAL_TIE,MATERIAL=S355,SECTION=RECT
160.000000,260.000000
1.000000,1.000000,1.000000
*BOUNDARY
1,1,6,0.000000
2,3,3,0.000000
3,3,3,0.000000
4,3,3,0.000000
9,3,3,0.000000
12,3,3,0.000000
15,3,3,0.000000
18,3,3,0.000000
10,3,3,0.000000
13,3,3,0.000000
16,3,3,0.000000
19,3,3,0.000000
11,3,3,0.000000
14,3,3,0.000000
17,3,3,0.000000
20,3,3,0.000000
5,3,3,0.000000
6,3,3,0.000000
7,3,3,0.000000
8,3,3,0.000000
*STEP
*STATIC
*CLOAD
32,3,-10000.000000
35,3,-10000.000000
38,3,-10000.000000
33,3,-10000.000000
36,3,-10000.000000
39,3,-10000.000000
34,3,-10000.000000
37,3,-10000.000000
40,3,-10000.000000
*NODE PRINT,NSET=ALLN
U
*EL PRINT,ELSET=ALLE
S
*END STEP
