*HEADING
Motor/trailer bogie H-frame screening model
*NODE
1,-1750.000000,-1100.000000,620.000000
2,-1050.000000,-1100.000000,620.000000
3,0.000000,-1100.000000,620.000000
4,1050.000000,-1100.000000,620.000000
5,1750.000000,-1100.000000,620.000000
6,-1750.000000,1100.000000,620.000000
7,-1050.000000,1100.000000,620.000000
8,0.000000,1100.000000,620.000000
9,1050.000000,1100.000000,620.000000
10,1750.000000,1100.000000,620.000000
11,-1500.000000,-1100.000000,620.000000
12,-1500.000000,-750.000000,620.000000
13,-1500.000000,0.000000,620.000000
14,-1500.000000,750.000000,620.000000
15,-1500.000000,1100.000000,620.000000
16,0.000000,-750.000000,620.000000
17,0.000000,0.000000,620.000000
18,0.000000,750.000000,620.000000
19,1500.000000,-1100.000000,620.000000
20,1500.000000,-750.000000,620.000000
** ... 9 like lines cut
*NSET,NSET=ALLN
1,2,3,4,5,6,7,8,9,10,11,12
13,14,15,16,17,18,19,20,21,22,23,24
25,26,27,28,29
*ELSET,ELSET=ALLE
1,2,3,4,5,6,7,8,9,10,11,12
13,14,15,16,17,18,19,20,21,22,23,24
*ELEMENT,TYPE=B31,ELSET=SIDE_BEAM
1,1,2
2,2,3
3,3,4
4,4,5
5,6,7
6,7,8
7,8,9
8,9,10
*ELEMENT,TYPE=B31,ELSET=CROSS_MEMBER
9,11,12
10,12,13
11,13,14
12,14,15
13,3,16
14,16,17
15,17,18
16,18,8
17,19,20
18,20,21
19,21,22
20,22,23
*ELEMENT,TYPE=B31,ELSET=BOLSTER
21,24,25
23,27,28
*ELEMENT,TYPE=B31,ELSET=LINK
22,16,26
24,18,29
*MATERIAL,NAME=S355
*ELASTIC
210000.0,0.300
*BEAM SECTION,ELSET=SIDE_BEAM,MATERIAL=S355,SECTION=RECT
160.000000,280.000000
0.000000,0.000000,-1.000000
*BEAM SECTION,ELSET=CROSS_MEMBER,MATERIAL=S355,SECTION=RECT
180.000000,220.000000
0.000000,0.000000,-1.000000
*BEAM SECTION,ELSET=BOLSTER,MATERIAL=S355,SECTION=RECT
220.000000,260.000000
0.000000,0.000000,-1.000000
*BEAM SECTION,ELSET=LINK,MATERIAL=S355,SECTION=RECT
90.000000,110.000000
1.000000,0.000000,0.000000
*BOUNDARY
2,1,6,0.000000
7,2,3,0.000000
4,3,3,0.000000
9,3,3,0.000000
*STEP
*STATIC
*CLOAD
26,3,-80000.000000
29,3,-80000.000000
*NODE PRINT,NSET=ALLN
U
*EL PRINT,ELSET=ALLE
S
*END STEP
